
data_
_chemical_name_mineral ?LaB6?
_cell_length_a 4.15683
_cell_length_b 4.15683
_cell_length_c 4.15683
_cell_angle_alpha 90
_cell_angle_beta 90
_cell_angle_gamma 90
_cell_volume 71.8268451
_symmetry_space_group_name_H-M Pm-3m
loop_
	_symmetry_equiv_pos_as_xyz
	 'x, y, z '
	 '-x, -y, z '
	 '-x, -z, -y '
	 '-x, -z, y '
	 '-x, z, -y '
	 '-x, z, y '
	 '-x, y, -z '
	 '-x, y, z '
	 '-y, -x, -z '
	 '-y, -x, z '
	 '-y, -z, -x '
	 '-y, -z, x '
	 '-y, z, -x '
	 '-y, z, x '
	 '-y, x, -z '
	 '-y, x, z '
	 '-z, -x, -y '
	 '-z, -x, y '
	 '-z, -y, -x '
	 '-z, -y, x '
	 '-z, y, -x '
	 '-z, y, x '
	 '-z, x, -y '
	 '-z, x, y '
	 'z, -x, -y '
	 'z, -x, y '
	 'z, -y, -x '
	 'z, -y, x '
	 'z, y, -x '
	 'z, y, x '
	 'z, x, -y '
	 'z, x, y '
	 'y, -x, -z '
	 'y, -x, z '
	 'y, -z, -x '
	 'y, -z, x '
	 'y, z, -x '
	 'y, z, x '
	 'y, x, -z '
	 'y, x, z '
	 'x, -y, -z '
	 'x, -y, z '
	 'x, -z, -y '
	 'x, -z, y '
	 'x, z, -y '
	 'x, z, y '
	 'x, y, -z '
	 '-x, -y, -z '
loop_
_atom_site_label
_atom_site_type_symbol
_atom_site_symmetry_multiplicity
_atom_site_fract_x
_atom_site_fract_y
_atom_site_fract_z
_atom_site_occupancy
_atom_site_B_iso_or_equiv
La La   1 0 0 0 1 0.4598546
B B   6 0.2028428 0.5 0.5 1 0.3552064